powerfactory/powerfactory-converter/src/test/resources/ThreeMIB_T3W_phase_solved.dgs
$$General;ID(a:40);Descr(a:40);Val(a:40)
  1;Version;5.0


$$ChaRef;ID(a:40);loc_name(a:40);fold_id(p)
  2;fline;16
  3;fline;17
  4;ratfac_h;37
  5;ratfac_l;37
  6;ratfac_m;37
  7;ratfac;35
  8;ratfac;36


$$ChaVec;ID(a:40);loc_name(a:40);fold_id(p);scale(p);usage(i);approx(i);vector:SIZEROW(i);vector:0(r);vector:1(r);vector:2(r)
  9;vec_1;;;0;0;3;100;100,009568462348;100,019136924696
  10;vec_2;;;0;0;3;100;100,009468800303;100,018937600606
  11;vec_3;;;0;0;3;10140;10141;10142
  12;vec_4;;;0;0;3;10000;99999;99999
  13;vec_5;;;0;0;3;100;100,990099009901;101,980198019802
  14;vec_6;;;0;0;3;100;100,497512437811;100,995024875622
  15;vec_7;;;0;0;3;100;100,332225913621;100,664451827243


$$ElmLne;ID(a:40);loc_name(a:40);for_name(a:50);fold_id(p);typ_id(p);dline(r);fline(r);GPScoords:SIZEROW(i);GPScoords:SIZECOL(i);nlnum(i);inAir(i)
  16;lne_4_5_1;;23;79;1;1;0;0;1;0
  17;lne_5_6_1;;23;80;1;1;0;0;1;0


$$ElmLod;ID(a:40);loc_name(a:40);for_name(a:50);fold_id(p);typ_id(p);mode_inp(a:3);slini(r);plini(r);qlini(r);coslini(r);pf_recap(i);scale0(r);i_scale(i);outserv(i);classif(a:20)
  18;lod_4_1;;23;81;PQ;1403,567;1400;100;0,997458;0;1;0;0;
  19;lod_5_1;;23;81;PQ;2002,498;2000;100;0,998752;0;1;0;0;
  20;lod_5_2;;23;81;PQ;50;0;50;0;0;1;0;1;
  21;lod_6_1;;23;81;PQ;10198,04;10000;2000;0,980580;0;1;0;0;
  22;lod_7_1;;23;81;PQ;1,414214;1;1;0,707106;0;1;0;0;


$$ElmNet;ID(a:40);loc_name(a:40);for_name(a:50);fold_id(p);frnom(r);pDiagram(p)
  23;1 1;;;60;


$$ElmSym;ID(a:40);loc_name(a:40);for_name(a:50);fold_id(p);typ_id(p);cCategory(a);ngnum(i);i_mot(i);pgini(r);qgini(r);cosgini(r);usetp(r);pf_recap(i);q_min(r);q_max(r);outserv(i);av_mode(a);phtech(i)
  24;sym_1_1;;23;82;Others;1;0;1404;0;1;1,04;0;-6,346154;6,346154;0;constv;1
  25;sym_2_1;;23;83;Others;1;0;1404;0;1;1,04;0;-6,346154;6,346154;0;constv;1
  26;sym_3_1;;23;84;Others;1;0;800;0;1;1,02;0;-11,1236;11,1236;0;constv;1
  27;sym_6_1;;23;85;Others;1;0;9796,685;0;1;1;0;-0,099;0,099;0;constv;1


$$ElmTerm;ID(a:40);loc_name(a:40);for_name(a:50);fold_id(p);typ_id(p);systype(i);iUsage(i);uknom(r);unknom(r);iminus(i);outserv(i);GPSlat(r);GPSlon(r);vtarget(r);m:u(r);m:phiu(r)
  28;1 1;;23;;0;0;18;10,3923;0;0;0;0;1;1,03999996199009;51,7332598644685
  29;2 2;;23;;0;0;18;10,3923;0;0;0;0;1;1,03999996427962;69,6782607740578
  30;3 3;;23;;0;0;18;10,3923;0;0;0;0;1;1,01999998092655;19,8767656286686
  31;4 4;;23;;0;0;500;288,6751;0;0;0;0;1;0,98693647855736;46,7030827240461
  32;5 5;;23;;0;0;500;288,6751;0;0;0;0;1;0,96457553875394;14,6516444892746
  33;6 6;;23;;0;0;500;288,6751;0;0;0;0;1;1;0
  34;7 7;;23;;0;0;16;9,237604;0;0;0;0;1;0,97651807879441;54,178288400631


$$ElmTr2;ID(a:40);loc_name(a:40);fold_id(p);for_name(a:50);typ_id(p);ntnum(i);outserv(i);nntap(i);i_auto(i);ntrcn(i);usetp(r);usp_low(r);usp_up(r);t2ldc(i)
  35;trf_4_1_1;23;;86;1;0;0;0;0;1,005;0,51;1,5;0
  36;trf_5_3_1;23;;87;1;0;0;0;0;1,025;0,95;1,1;0


$$ElmTr3;ID(a:40);loc_name(a:40);fold_id(p);for_name(a:50);nt3nm(i);typ_id(p);outserv(i);n3tap_h(i);n3tap_m(i);n3tap_l(i);i_auto_hl(i);ictrlside(i);ntrcn(i);t3ldc(i);usetp(r);usp_low(r);usp_up(r)
  37;tr3_4_2_7_1;23;;1;88;0;1;0;0;0;0;1;0;0;0;0


$$ElmZone;ID(a:40);loc_name(a:40);for_name(a:50);fold_id(p);icolor(i);curscale(r)
  38;1_1;;;1;1


$$StaCubic;ID(a:40);loc_name(a:40);for_name(a:50);fold_id(p);obj_bus(i);obj_id(p);it2p1(i);it2p2(i);it2p3(i)
  39;sym_1_1;;28;0;24;0;1;2
  40;trf_4_1_1;;28;1;35;0;1;2
  41;sym_2_1;;29;0;25;0;1;2
  42;tr3_4_2_7_1;;29;1;37;0;1;2
  43;sym_3_1;;30;0;26;0;1;2
  44;trf_5_3_1;;30;1;36;0;1;2
  45;lne_4_5_1;;31;0;16;0;1;2
  46;lod_4_1;;31;0;18;0;1;2
  47;tr3_4_2_7_1;;31;0;37;0;1;2
  48;trf_4_1_1;;31;0;35;0;1;2
  49;lne_4_5_1;;32;1;16;0;1;2
  50;lne_5_6_1;;32;0;17;0;1;2
  51;lod_5_1;;32;0;19;0;1;2
  52;lod_5_2;;32;0;20;0;1;2
  53;trf_5_3_1;;32;0;36;0;1;2
  54;lne_5_6_1;;33;1;17;0;1;2
  55;lod_6_1;;33;0;21;0;1;2
  56;sym_6_1;;33;0;27;0;1;2
  57;lod_7_1;;34;0;22;0;1;2
  58;tr3_4_2_7_1;;34;2;37;0;1;2


$$StaSwitch;ID(a:40);loc_name(a:40);for_name(a:50);fold_id(p);on_off(i);typ_id(p);aUsage(a)
  59;Switch;;39;1;;cbk
  60;Switch;;40;1;;cbk
  61;Switch;;41;1;;cbk
  62;Switch;;42;1;;cbk
  63;Switch;;43;1;;cbk
  64;Switch;;44;1;;cbk
  65;Switch;;45;1;;cbk
  66;Switch;;46;1;;cbk
  67;Switch;;47;1;;cbk
  68;Switch;;48;1;;cbk
  69;Switch;;49;1;;cbk
  70;Switch;;50;1;;cbk
  71;Switch;;51;1;;cbk
  72;Switch;;52;0;;cbk
  73;Switch;;53;1;;cbk
  74;Switch;;54;1;;cbk
  75;Switch;;55;1;;cbk
  76;Switch;;56;1;;cbk
  77;Switch;;57;1;;cbk
  78;Switch;;58;1;;cbk


$$TypLne;ID(a:40);loc_name(a:40);for_name(a:50);fold_id(p);uline(r);sline(r);InomAir(r);cohl_(i);rline(r);xline(r);rline0(r);xline0(r);Ithr(r);tmax(r);rtemp(r);systp(i);nlnph(i);nneutral(i);frnom(r);mlei(a:2);bline(r);bline0(r)
  79;tlne_4_5_1;;23;500;12,06778;1;0;0;90;999999;999999;0;80;80;0;3;0;60;Cu;0;0
  80;tlne_5_6_1;;23;500;12,19479;1;0;0;300;999999;999999;0;80;80;0;3;0;60;Cu;0;0


$$TypLod;ID(a:40);loc_name(a:40);for_name(a:50);fold_id(p);systp(i);phtech(i);aP(r);bP(r);kpu0(r);kpu1(r);kpu(r);aQ(r);bQ(r);kqu0(r);kqu1(r);kqu(r)
  81;lodtyp_pq;;23;0;0;1;0;0;1;2;1;0;0;1;2


$$TypSym;ID(a:40);loc_name(a:40);for_name(a:50);fold_id(p);sgn(r);ugn(r);cosn(r);xd(r);xq(r);xdsss(r);rstr(r);xdsat(r);satur(i);nphase(i);nslty(i);x0sy(r);r0sy(r);x2sy(r);r2sy(r);iopt_data(i);xds(r);xqs(r);xl(r);xdss(r);xqss(r);xrlq(r);tds(r);tqs(r);tdss(r);tqss(r)
  82;tsym_1_1;;23;1560;18;1;2;2;0,29;0,0019;1,2;0;3;2;0,29;0,0019;0,29;0,0019;1;0,3;0,3;0,145;0,29;0,29;0;1;0;0,05;0,05
  83;tsym_2_1;;23;1560;18;1;2;2;0,29;0,0019;1,2;0;3;2;0,29;0,0019;0,29;0,0019;1;0,3;0,3;0,145;0,29;0,29;0;1;0;0,05;0,05
  84;tsym_3_1;;23;890;18;1;2;2;0,337;0;1,2;0;3;2;0,337;0;0,337;0;1;0,3;0,3;0,1685;0,337;0,337;0;1;0;0,05;0,05
  85;tsym_6_1;;23;100000;500;1;2;2;0,2;0;1,2;0;3;2;0,2;0;0,2;0;1;0,3;0,3;0,1;0,2;0,2;0;1;0;0,05;0,05


$$TypTr2;ID(a:40);loc_name(a:40);for_name(a:50);fold_id(p);nt2ph(i);strn(r);frnom(r);utrn_h(r);utrn_l(r);uktr(r);pcutr(r);uk0tr(r);ur0tr(r);tr2cn_h(a:2);tr2cn_l(a:2);nt2ag(r);curmg(r);pfe(r);zx0hl_n(r);itapch(i);tap_side(i);dutap(r);phitr(r);nntap0(i);ntpmn(i);ntpmx(i);manuf(a:20)
  86;ttrf_4_1_1;;23;3;100;60;500;18;0,641;0;0;0;D;D;-0;0;0;100;1;1;4,714286;0;0;-11;11;
  87;ttrf_5_3_1;;23;3;100;60;500;18;1,12;0;0;0;D;D;-0;0;0;100;1;1;0,476190;0;0;-11;11;


$$TypTr3;ID(a:40);loc_name(a:40);for_name(a:50);fold_id(p);strn3_h(r);strn3_m(r);strn3_l(r);utrn3_h(r);utrn3_m(r);utrn3_l(r);uktr3_h(r);uktr3_m(r);uktr3_l(r);pcut3_h(r);pcut3_m(r);pcut3_l(r);uk0hm(r);uk0ml(r);uk0hl(r);ur0hm(r);ur0ml(r);ur0hl(r);tr3cn_h(a:2);tr3cn_m(a:2);tr3cn_l(a:2);nt3ag_h(r);nt3ag_m(r);nt3ag_l(r);curm3(r);pfe(r);du3tp_h(r);ph3tr_h(r);n3tp0_h(i);n3tmn_h(i);n3tmx_h(i);du3tp_m(r);ph3tr_m(r);n3tp0_m(i);n3tmn_m(i);n3tmx_m(i);du3tp_l(r);ph3tr_l(r);n3tp0_l(i);n3tmn_l(i);n3tmx_l(i);itapos(i);i3loc(i)
  88;ttr3_4_2_7_1;;23;101;201;301;500;18,237;15,998;3,083255;14,93645;6,724075;17,61356;135,1672;0,603695;0;0;0;0;0;0;YN;YN;YN;-0;-0;-0;0,178613;144,572;0;2,0;0;-1;1;0;0;0;-1;1;0;0;0;-1;1;1;0
